[
    [
        "https://github.com/OpenFAST/matlab-toolbox",
        50,
        1491842469
    ],
    [
        "https://github.com/yltzdhbc/Swarm_Sim_Matlab",
        50,
        1650943405
    ],
    [
        "https://github.com/joeyos/LicensePlateRecognition",
        50,
        1522576070
    ],
    [
        "https://github.com/playerkk/drfi_matlab",
        50,
        1417684425
    ],
    [
        "https://github.com/VietTran86/Copula-Variational-Bayes",
        50,
        1529146241
    ],
    [
        "https://github.com/Biwei-Huang/Causal-Discovery-from-Nonstationary-Heterogeneous-Data",
        50,
        1539120446
    ],
    [
        "https://github.com/WHUzxp/stackelberg_Game",
        50,
        1604062040
    ],
    [
        "https://github.com/nurkanovic/nosnoc",
        50,
        1647347824
    ],
    [
        "https://github.com/zhangprofessor/fast-Non-local-Means-and-Asymptotic-Non-local-Means",
        50,
        1564752150
    ],
    [
        "https://github.com/CL2-UWaterloo/GP-MPC-of-Platooning",
        50,
        1664833848
    ],
    [
        "https://github.com/entropyzeroo/ImageFusion",
        50,
        1560959041
    ],
    [
        "https://github.com/matlab-deep-learning/Image-Classification-in-MATLAB-Using-TensorFlow",
        50,
        1646831739
    ],
    [
        "https://github.com/sjtrny/SubKit",
        50,
        1407128530
    ],
    [
        "https://github.com/RoyaFiroozi/Centralized-Planning",
        50,
        1584428090
    ],
    [
        "https://github.com/acuoci/Matlab4CRE",
        50,
        1416440064
    ],
    [
        "https://github.com/vcg-uvic/TILDE",
        50,
        1432050084
    ],
    [
        "https://github.com/emmanuelkalunga/Online-SSVEP",
        50,
        1440149060
    ],
    [
        "https://github.com/PyojinKim/Sensors-Data-Logger",
        50,
        1564692243
    ],
    [
        "https://github.com/GasserElAzab/6-DOF-DLR-robot-simulation-in-Matlab-Simulink",
        50,
        1603585971
    ],
    [
        "https://github.com/lfads/lfads-run-manager",
        50,
        1481248235
    ],
    [
        "https://github.com/tim283/smpc_example",
        50,
        1611782613
    ],
    [
        "https://github.com/YijieLinaMao/RSMA",
        50,
        1652261191
    ],
    [
        "https://github.com/LobotomyWeekend/Cooperative-Control",
        50,
        1509374681
    ],
    [
        "https://github.com/SeveNOlogy7/SimMoLFil",
        50,
        1465401369
    ],
    [
        "https://github.com/kschan0214/sepia",
        50,
        1535301503
    ],
    [
        "https://github.com/YingqianWang/Light-Field-Refocusing-A-Demo",
        50,
        1575343994
    ],
    [
        "https://github.com/msperlin/MS_Regress-Matlab",
        50,
        1483723556
    ],
    [
        "https://github.com/kipa200/Phase_field_code",
        50,
        1597908941
    ],
    [
        "https://github.com/bewimm/kinodynamic_rrt_star",
        50,
        1421105268
    ],
    [
        "https://github.com/cvnlab/nsddatapaper",
        50,
        1626364148
    ],
    [
        "https://github.com/yu-lab-vt/AQuA",
        50,
        1545248563
    ],
    [
        "https://github.com/mathworks/MATLAB-Language-grammar",
        50,
        1510590666
    ],
    [
        "https://github.com/JosePMarques/MP2RAGE-related-scripts",
        50,
        1494251200
    ],
    [
        "https://github.com/ayanc/mdepth",
        50,
        1464140632
    ],
    [
        "https://github.com/HaizhaoYang/SynLab",
        50,
        1423845174
    ],
    [
        "https://github.com/BJCaasenbrood/SorotokiCode",
        50,
        1575622953
    ],
    [
        "https://github.com/nsprljan/ImageCodingResearchTools",
        50,
        1296342265
    ],
    [
        "https://github.com/unixyhuang/PSO_LSTM-Example",
        50,
        1669018612
    ],
    [
        "https://github.com/neuroethology/bentoMAT",
        50,
        1499547846
    ],
    [
        "https://github.com/Li-Chongyi/MMLE_code",
        50,
        1652422146
    ],
    [
        "https://github.com/Dhanvanth0905/Image_Restoration_On_Lunar_Surface_Images",
        50,
        1704613996
    ],
    [
        "https://github.com/norouzi/ckmeans",
        50,
        1366541117
    ],
    [
        "https://github.com/stephenslab/rss",
        50,
        1443480585
    ],
    [
        "https://github.com/albeco/LaserPulse",
        50,
        1438704405
    ],
    [
        "https://github.com/irvingvasquez/ocpp",
        50,
        1521774113
    ],
    [
        "https://github.com/tuandn8/GM_PHD_Filter",
        50,
        1423410854
    ],
    [
        "https://github.com/shuaijiang/STRAIGHT",
        51,
        1419343564
    ],
    [
        "https://github.com/zyinshi/Optical-Flow",
        51,
        1419902418
    ],
    [
        "https://github.com/zegangYang/PSO_PathPlaningNew",
        51,
        1492439118
    ],
    [
        "https://github.com/emma-sjwang/pOSAL",
        51,
        1546075163
    ],
    [
        "https://github.com/analogdevicesinc/ad936x-filter-wizard",
        51,
        1432673445
    ],
    [
        "https://github.com/zibangzhang/Fourier-single-pixel-imaging",
        51,
        1531205513
    ],
    [
        "https://github.com/cmontalvo251/aerospace",
        51,
        1633035226
    ],
    [
        "https://github.com/mganjoo/zslearning",
        51,
        1353145994
    ],
    [
        "https://github.com/xiaoqiang0008/Path-Planning-Optimization-Algorithm-Simulation-Based-on-Genetic-Algorithm",
        51,
        1521619590
    ],
    [
        "https://github.com/nntk072/Research_training",
        51,
        1680806781
    ],
    [
        "https://github.com/kapibara/ToF-Calibration",
        51,
        1430397507
    ],
    [
        "https://github.com/PengJiwu/Implementation_of_MEC_papers",
        51,
        1532391929
    ],
    [
        "https://github.com/sysu-imsl/SketchyCOCO",
        51,
        1587172138
    ],
    [
        "https://github.com/gcheron/P-CNN",
        51,
        1447854977
    ],
    [
        "https://github.com/facebookarchive/FBHALE",
        51,
        1516335804
    ],
    [
        "https://github.com/LilianYe/Andrew-Ng-Machine-Learning-Programming-solutions-",
        51,
        1369938962
    ],
    [
        "https://github.com/Tingliangstu/Lammps_tools",
        51,
        1571745581
    ],
    [
        "https://github.com/ilent2/ott",
        51,
        1519882244
    ],
    [
        "https://github.com/EZ4BYG/Num_Func",
        51,
        1554474665
    ],
    [
        "https://github.com/Ikhlas-Ben-Hmida/SoRoSim",
        51,
        1634624296
    ],
    [
        "https://github.com/mghojal/Localization-Algorithm",
        51,
        1540479127
    ],
    [
        "https://github.com/chenfeiyi/PBACalib",
        51,
        1656996731
    ],
    [
        "https://github.com/epfl-lts2/unlocbox",
        51,
        1426275284
    ],
    [
        "https://github.com/ionhandshaker/distmesh",
        51,
        1520852212
    ],
    [
        "https://github.com/eric-guerin/terrain-amplification",
        51,
        1504624158
    ],
    [
        "https://github.com/FanWangEcon/Math4Econ",
        51,
        1534773234
    ],
    [
        "https://github.com/EnigmaHuang/Poisson_FDM_Multigrid",
        51,
        1512147857
    ],
    [
        "https://github.com/galad-loth/StereoMatching",
        51,
        1501799117
    ],
    [
        "https://github.com/MustafaSaraoglu/AutonomousVehicleModeling",
        51,
        1614944676
    ],
    [
        "https://github.com/wxy1018/Waveform-Reflection-Design-for-RIS-ISAC",
        51,
        1700655933
    ],
    [
        "https://github.com/sjtrny/FuseBox",
        51,
        1407987698
    ],
    [
        "https://github.com/ROAM-Lab-ND/spatial_v2_extended",
        51,
        1607202375
    ],
    [
        "https://github.com/jonfanlab/Metagrating-Topology-Optimization",
        51,
        1569615177
    ],
    [
        "https://github.com/Xuerenbujianhua/3DPathplanning",
        51,
        1700193043
    ],
    [
        "https://github.com/HoniiTro19/Robot-Sweeper-Path-Programming",
        51,
        1562425853
    ],
    [
        "https://github.com/DengPingFan/CODToolbox",
        51,
        1587839082
    ],
    [
        "https://github.com/THUHoloLab/FZA_lensless_imaging",
        51,
        1552658478
    ],
    [
        "https://github.com/lvniqi/ADRC-matlab",
        51,
        1494989621
    ],
    [
        "https://github.com/Xhran/UAV-PATH-PLANNING",
        51,
        1638348659
    ],
    [
        "https://github.com/eric20123101/Improved-path-planning-for-ant-colony-algorithm",
        51,
        1555901748
    ],
    [
        "https://github.com/grinsted/gwmcmc",
        51,
        1427450540
    ],
    [
        "https://github.com/abrazinskas/convex-optimization",
        51,
        1473789363
    ],
    [
        "https://github.com/HeZhang1994/hypergraph-matching",
        51,
        1522688880
    ],
    [
        "https://github.com/NYU-DiffusionMRI/DESIGNER-v1",
        51,
        1466014066
    ],
    [
        "https://github.com/soc-ucsd/DMPC_for_platoons",
        51,
        1521199907
    ],
    [
        "https://github.com/Mensen/swa-matlab",
        51,
        1396032773
    ],
    [
        "https://github.com/saebyulpark/cross_scape_plot",
        51,
        1561543497
    ],
    [
        "https://github.com/d1l1x/hita",
        51,
        1327475277
    ],
    [
        "https://github.com/okbalefthanded/bci_toolbox",
        51,
        1516733461
    ],
    [
        "https://github.com/graphviz4matlab/graphviz4matlab",
        51,
        1388727532
    ],
    [
        "https://github.com/faruto/Libsvm-FarutoUltimate-Version",
        51,
        1409500013
    ],
    [
        "https://github.com/earthat/Digital-Image-Watermarking-Using-Optimized-DWT-DCT",
        51,
        1492413472
    ],
    [
        "https://github.com/madcowswe/ODriveTopOld",
        52,
        1461510695
    ],
    [
        "https://github.com/carlobar/PDToolbox_matlab",
        52,
        1404086242
    ],
    [
        "https://github.com/aobuke/Human-Activity-Recognition",
        52,
        1586072732
    ],
    [
        "https://github.com/varunnr/camera_and_pose",
        52,
        1357330415
    ],
    [
        "https://github.com/summitgao/SAR_Change_Detection_CWNN",
        52,
        1564783889
    ],
    [
        "https://github.com/mlpi-unipi/drones-swarm",
        52,
        1547484982
    ],
    [
        "https://github.com/Dhanvanth0905/Recommender_Systems_Using_Collaborative_Filtering",
        52,
        1704632528
    ],
    [
        "https://github.com/olivierlar/miningsuite",
        52,
        1430170802
    ],
    [
        "https://github.com/colabin/PSO-VRPWT",
        52,
        1535908837
    ],
    [
        "https://github.com/iandol/opticka",
        52,
        1340720455
    ],
    [
        "https://github.com/hagaygarty/mdCNN",
        52,
        1466982939
    ],
    [
        "https://github.com/mingzhang-yin/SIVI",
        52,
        1527368457
    ],
    [
        "https://github.com/DaveHealy-github/FracPaQ",
        52,
        1462301899
    ],
    [
        "https://github.com/Ir1d/DARKFACE_eval_tools",
        52,
        1554792462
    ],
    [
        "https://github.com/cemsaz/NGSIM-trajectories",
        52,
        1425607303
    ],
    [
        "https://github.com/scott89/WSS",
        52,
        1492134037
    ],
    [
        "https://github.com/redbKIT/redbKIT",
        52,
        1435054325
    ],
    [
        "https://github.com/steven2358/kmbox",
        52,
        1389888731
    ],
    [
        "https://github.com/fangvv/LassoADMM",
        52,
        1539699140
    ],
    [
        "https://github.com/doans/Underwater-Acoustic-Target-Classification-Based-on-Dense-Convolutional-Neural-Network",
        52,
        1598249936
    ],
    [
        "https://github.com/bearadamsj/multi-agent-with-obstacle-avoidance",
        52,
        1556651269
    ],
    [
        "https://github.com/MrHaobolu/ISAC_4D_IMaging",
        52,
        1689047380
    ],
    [
        "https://github.com/bids-standard/bids-matlab",
        52,
        1539009556
    ],
    [
        "https://github.com/Naplib/Naplib",
        52,
        1485457623
    ],
    [
        "https://github.com/slow295185031/MOEA-dev",
        52,
        1426303468
    ],
    [
        "https://github.com/sjgershm/mfit",
        52,
        1435540406
    ],
    [
        "https://github.com/catohaste/POMDP",
        52,
        1493565251
    ],
    [
        "https://github.com/pzczxs/MLSSVR",
        52,
        1460612087
    ],
    [
        "https://github.com/slayton/matlab-xkcdify",
        52,
        1349356977
    ],
    [
        "https://github.com/Mote3D/Mote3D_toolbox",
        52,
        1487060350
    ],
    [
        "https://github.com/denkywu/PolSAR-Calibration",
        52,
        1544530668
    ],
    [
        "https://github.com/cfwen/geometry-processing-package",
        52,
        1389679581
    ],
    [
        "https://github.com/Aiwiscal/MIT_Scheme",
        52,
        1553083438
    ],
    [
        "https://github.com/ankrh/MCmatlab",
        52,
        1638799720
    ],
    [
        "https://github.com/zhaolin820/near-field-integrated-sensing-and-communications",
        52,
        1686521071
    ],
    [
        "https://github.com/inkyusa/weedNet",
        52,
        1499186871
    ],
    [
        "https://github.com/Luxiush/Weighted-Guided-Image-Filter",
        52,
        1509937543
    ],
    [
        "https://github.com/PerformanceEstimation/Performance-Estimation-Toolbox",
        52,
        1488883404
    ],
    [
        "https://github.com/scott-moura/SPMeT",
        52,
        1478374584
    ],
    [
        "https://github.com/spreka/biomagdsb",
        52,
        1552489410
    ],
    [
        "https://github.com/gauxonz/KITTI-interp",
        52,
        1581657442
    ],
    [
        "https://github.com/uzh-rpg/rpg_image_reconstruction_from_events",
        52,
        1497964552
    ],
    [
        "https://github.com/deedy/Satellite-Orbit-Simulation",
        52,
        1350831641
    ],
    [
        "https://github.com/mr-d-self-driving/Control-and-AI-Algorithms",
        52,
        1542437411
    ],
    [
        "https://github.com/SteenMoeller/NORDIC_Raw",
        52,
        1612891362
    ],
    [
        "https://github.com/muyouhang/Led3D",
        52,
        1556528092
    ],
    [
        "https://github.com/hiroyuki-kasai/SparseGDLibrary",
        52,
        1493074021
    ],
    [
        "https://github.com/PetterS/patch-inpainting",
        52,
        1323626763
    ],
    [
        "https://github.com/sdnchen/psomatlab",
        52,
        1456329720
    ],
    [
        "https://github.com/learningadaptivereactiverobotcontrol/book-code",
        52,
        1637791885
    ],
    [
        "https://github.com/BlinkFTW/MIMO-OFDM",
        53,
        1409280096
    ],
    [
        "https://github.com/chaimi2013/3R",
        53,
        1596071816
    ],
    [
        "https://github.com/Electa-Git/PowerModelsACDC.jl",
        53,
        1515682112
    ],
    [
        "https://github.com/jflalonde/illuminationSingleImage",
        53,
        1348107778
    ],
    [
        "https://github.com/UditBhaskar19/OBJECT_TRACKING_MULTI_SENSOR_FUSION",
        53,
        1610156710
    ],
    [
        "https://github.com/aliensunmin/DomainSpecificHighlight",
        53,
        1406147367
    ],
    [
        "https://github.com/RoyChao19477/PCS",
        53,
        1648348359
    ],
    [
        "https://github.com/marrlab/BaSiC",
        53,
        1499087391
    ],
    [
        "https://github.com/whalewang410/Energy-Efficient_UAV_Communication_With_Trajectory_Optimization",
        53,
        1651160032
    ],
    [
        "https://github.com/aalanwar/Data-Driven-Predictive-Control",
        53,
        1607416681
    ],
    [
        "https://github.com/wmutschl/macroeconometrics",
        53,
        1532418750
    ],
    [
        "https://github.com/ShelsonCao/GraRep",
        53,
        1437538169
    ],
    [
        "https://github.com/tuckermcclure/how-kalman-filters-work-examples",
        53,
        1460568498
    ],
    [
        "https://github.com/vvrs/MPPIController",
        53,
        1520281145
    ],
    [
        "https://github.com/caiotavares/spectrum-sensing",
        53,
        1534936852
    ],
    [
        "https://github.com/TadasBaltrusaitis/CCNF",
        53,
        1400078775
    ],
    [
        "https://github.com/JWSoh/ARTN",
        53,
        1519014330
    ],
    [
        "https://github.com/libDirectional/libDirectional",
        53,
        1435227715
    ],
    [
        "https://github.com/gregfreeman/image_quality_toolbox",
        53,
        1346966187
    ],
    [
        "https://github.com/iqiukp/RVM-MATLAB",
        53,
        1541980414
    ],
    [
        "https://github.com/piyushbajaj0704/Driver-Sleep-Detection-Face-Eyes-Mouth-Detection",
        53,
        1434890100
    ],
    [
        "https://github.com/SHITIANYU-hue/Data-driven-control",
        53,
        1564024715
    ],
    [
        "https://github.com/rvlasveld/oc_svm",
        53,
        1374846993
    ],
    [
        "https://github.com/PolyuWirelessCommunicationLab/Channel-Estimation-for-Intelligent-Reflecting-Surface-Assisted-Multiuser-Communications",
        53,
        1612169354
    ],
    [
        "https://github.com/spunt/bspmview",
        53,
        1423008808
    ],
    [
        "https://github.com/cmontalvo251/MATLAB",
        53,
        1576778474
    ],
    [
        "https://github.com/bd622/DiscretHashing",
        53,
        1431566736
    ],
    [
        "https://github.com/mbrbic/Multi-view-LRSSC",
        53,
        1504107928
    ],
    [
        "https://github.com/dong-hao/EM3DVP",
        53,
        1558693452
    ],
    [
        "https://github.com/nik1106/MNA-MAT",
        53,
        1472312234
    ],
    [
        "https://github.com/alecjacobson/convex-optimization-cookbook",
        53,
        1596395766
    ],
    [
        "https://github.com/tyler-ai/GA_PSO_BP",
        53,
        1623033761
    ],
    [
        "https://github.com/zhanglichao/generatedTIR_tracking",
        53,
        1540896598
    ],
    [
        "https://github.com/spanikp/GNSS-toolbox",
        53,
        1564834612
    ],
    [
        "https://github.com/WenjinTao/Robotics--Coursera",
        53,
        1483851232
    ],
    [
        "https://github.com/professormahi/CTF",
        53,
        1426587252
    ],
    [
        "https://github.com/KovenYu/TSP",
        53,
        1515940496
    ],
    [
        "https://github.com/TheDatumOrg/kshape-matlab",
        53,
        1663948804
    ],
    [
        "https://github.com/msavva/ReVision",
        53,
        1410844977
    ],
    [
        "https://github.com/chrisconlon/blp-demand",
        53,
        1433352604
    ],
    [
        "https://github.com/StanfordASL/RobustMP",
        53,
        1546469038
    ],
    [
        "https://github.com/panakino/FBPConvNet",
        53,
        1498034453
    ],
    [
        "https://github.com/rahul-sb/RRTx",
        53,
        1561098302
    ],
    [
        "https://github.com/OpenBionics/Anthropomorphic-Robot-Hands",
        53,
        1500502098
    ],
    [
        "https://github.com/codeslake/SYNDOF",
        53,
        1529908444
    ],
    [
        "https://github.com/kestory/NJU-GameTheory-Homework",
        53,
        1539262853
    ],
    [
        "https://github.com/1PandaDing/Matlab-simulink-",
        53,
        1644503668
    ],
    [
        "https://github.com/peterhcharlton/ppg-beats",
        53,
        1642690866
    ],
    [
        "https://github.com/sccn/ICLabel",
        53,
        1521850340
    ],
    [
        "https://github.com/UCAS-IPA/IPA-discuss",
        54,
        1568964860
    ],
    [
        "https://github.com/cxy1997/Digital-Image-Processing-Algorithms",
        54,
        1515160125
    ],
    [
        "https://github.com/mathworks/MATLAB-Live-Task-for-Python",
        54,
        1651655780
    ],
    [
        "https://github.com/wuzhiguocarter/OpenPDR",
        54,
        1481626593
    ],
    [
        "https://github.com/MahanFathi/LQR-RRTstar",
        54,
        1489605673
    ],
    [
        "https://github.com/isalirezag/HiFST",
        54,
        1492542014
    ],
    [
        "https://github.com/brada/caltag",
        54,
        1296589247
    ],
    [
        "https://github.com/attaoveisi/AFISMC",
        54,
        1587376392
    ],
    [
        "https://github.com/vision4robotics/ARCF-tracker",
        54,
        1564580140
    ],
    [
        "https://github.com/panda5mt/depth_estimate_blur",
        54,
        1679629025
    ],
    [
        "https://github.com/alistairewj/peak-detector",
        54,
        1431014278
    ],
    [
        "https://github.com/paulpanwang/Underwater-Image-De-Scattering",
        54,
        1520488967
    ],
    [
        "https://github.com/muhammadaldacher/Analog-Design-of-1.9-GHz-PLL-system",
        54,
        1564466377
    ],
    [
        "https://github.com/Conclusio/matlab-epsclean",
        54,
        1488549518
    ],
    [
        "https://github.com/MOxUnit/MOxUnit",
        54,
        1442745522
    ],
    [
        "https://github.com/fxgiraldo/Element-based-Galerkin-Methods",
        54,
        1548434414
    ],
    [
        "https://github.com/kirk86/wateramarking",
        54,
        1370811806
    ],
    [
        "https://github.com/hellowangqian/domain-adaptation-capls",
        54,
        1553262218
    ],
    [
        "https://github.com/probml/pmtksupport",
        54,
        1388777488
    ],
    [
        "https://github.com/Exception1984/StringArt",
        54,
        1525699601
    ],
    [
        "https://github.com/SihaoSun/INDI_Quadrotor_FTC",
        54,
        1604599642
    ],
    [
        "https://github.com/weiliu89/detectionAnalysis",
        54,
        1455123122
    ],
    [
        "https://github.com/MathworksProjects/mmWave-MU-MIMO",
        54,
        1541440190
    ],
    [
        "https://github.com/Alro10/MOESP-and-N4SID",
        54,
        1498158643
    ],
    [
        "https://github.com/paul-kassebaum-mathworks/circularGraph",
        54,
        1470251949
    ],
    [
        "https://github.com/VG-TechCenter/Optimizers",
        54,
        1687484996
    ],
    [
        "https://github.com/PetWorm/sim3_evaluate_tool",
        54,
        1547538554
    ],
    [
        "https://github.com/harimkang/LSTM-Prediction",
        54,
        1575349875
    ],
    [
        "https://github.com/yuanwei1989/landmark-detection",
        54,
        1538860677
    ],
    [
        "https://github.com/vkazei/fastFWI",
        54,
        1555328697
    ],
    [
        "https://github.com/oxfordcontrol/SOSTOOLS",
        54,
        1559827971
    ],
    [
        "https://github.com/gaurav-iiitm/UAVs-path-planning-using-multiverse-optimizer",
        54,
        1532749729
    ],
    [
        "https://github.com/YuYongRun/PolarCodes-Encoding-Decoding-Construction",
        54,
        1528683306
    ],
    [
        "https://github.com/acschaefer/ple",
        54,
        1532447584
    ],
    [
        "https://github.com/willyfh/uav-trajectory-planning",
        54,
        1672564964
    ],
    [
        "https://github.com/trane293/DDSMUtility",
        54,
        1446395568
    ],
    [
        "https://github.com/chris-taylor/USElection",
        54,
        1352046257
    ],
    [
        "https://github.com/jinxixiang/FISTA-Net",
        54,
        1595861248
    ],
    [
        "https://github.com/KAIST-vilab/SpherePHD_public",
        54,
        1554283660
    ],
    [
        "https://github.com/polarch/Vector-Base-Amplitude-Panning",
        54,
        1446568927
    ],
    [
        "https://github.com/qlt315/NOMA-MEC-IoVT",
        54,
        1676943897
    ],
    [
        "https://github.com/cdebacco/SpringRank",
        54,
        1504166264
    ],
    [
        "https://github.com/ewiger/yamlmatlab",
        54,
        1414010247
    ],
    [
        "https://github.com/QuantumLiu/matDL",
        54,
        1491531564
    ],
    [
        "https://github.com/ACIPL/MPC4AMVs",
        54,
        1651870662
    ],
    [
        "https://github.com/taroz/gsdc2023",
        54,
        1720670906
    ],
    [
        "https://github.com/quandl/Matlab",
        55,
        1362866628
    ],
    [
        "https://github.com/nsteinme/steinmetz-et-al-2019",
        55,
        1550691887
    ],
    [
        "https://github.com/asheshjain399/ICCV2015_Brain4Cars",
        55,
        1448001835
    ],
    [
        "https://github.com/lcnhappe/happe",
        55,
        1506730008
    ],
    [
        "https://github.com/gslapnicar/bp-estimation-mimic3",
        55,
        1557736887
    ],
    [
        "https://github.com/owang/PhaseBasedInterpolation",
        55,
        1460856133
    ],
    [
        "https://github.com/balcilar/Calibration-Under_Different-Resolution",
        55,
        1531577000
    ],
    [
        "https://github.com/Sect1on/WaveletImageFusion",
        55,
        1536047936
    ],
    [
        "https://github.com/HidekiKawahara/SparkNG",
        55,
        1507772852
    ],
    [
        "https://github.com/LAVI-USP/DBT-Reconstruction",
        55,
        1522948844
    ],
    [
        "https://github.com/gaocq/MoG-for-small-target-detection",
        55,
        1544080978
    ],
    [
        "https://github.com/malin84/transportation_networks_of_china",
        55,
        1705991247
    ],
    [
        "https://github.com/DingranFeng/Wireless-Communication-Simulation",
        55,
        1563238575
    ],
    [
        "https://github.com/snopt/snopt-matlab",
        55,
        1413839404
    ],
    [
        "https://github.com/IVUL-KAUST/UAVSimUE4",
        55,
        1482047120
    ],
    [
        "https://github.com/emilbjornson/RIS-fading",
        55,
        1609532284
    ],
    [
        "https://github.com/Subhankar2000/Antenna_Theory_Analysis_and_Design_C.A.Balanis---MATLAB",
        55,
        1611514183
    ],
    [
        "https://github.com/PrincetonML/SemanticVector",
        55,
        1478905122
    ],
    [
        "https://github.com/cea-wind/LDPCC",
        55,
        1437100497
    ],
    [
        "https://github.com/ShuoYangRobotics/Multi-IMU-Proprioceptive-Odometry",
        55,
        1677382065
    ],
    [
        "https://github.com/pkorus/multiscale-prnu",
        55,
        1474444723
    ],
    [
        "https://github.com/VisDrone/VisDrone2018-MOT-toolkit",
        55,
        1524123058
    ],
    [
        "https://github.com/ZhangHongBo2019/VRP-in-Multi-Distribution-Centers",
        55,
        1565273113
    ],
    [
        "https://github.com/gabmoreira/maks",
        55,
        1604768188
    ],
    [
        "https://github.com/andrew-pengjj/Enhanced-3DTV",
        55,
        1570791958
    ],
    [
        "https://github.com/HelloYaoZhang/Face-Recognition-Using-PCA",
        55,
        1489847855
    ],
    [
        "https://github.com/chuhang/HouseCraft",
        55,
        1474857035
    ],
    [
        "https://github.com/xb00dx/ConvertChanceConstraint-ccc",
        55,
        1548990880
    ],
    [
        "https://github.com/jayJieChen/ChannelEstimation-RIS-MUmmWAVe-MIMO-Systems",
        55,
        1621864729
    ],
    [
        "https://github.com/poppinace/TAISL",
        55,
        1500444827
    ],
    [
        "https://github.com/microsoft/OTP4LTE-U",
        55,
        1459897231
    ],
    [
        "https://github.com/zhongshun/MCTS_for_Behavior_Planning",
        55,
        1694419860
    ],
    [
        "https://github.com/modenaxe/msk-STAPLE",
        55,
        1562774429
    ],
    [
        "https://github.com/YonghaoXu/RPNet",
        55,
        1544665746
    ],
    [
        "https://github.com/AnttiLehikoinen/SMEKlib",
        55,
        1482999967
    ],
    [
        "https://github.com/yanbozhang007/CNN-MAR",
        55,
        1522015205
    ],
    [
        "https://github.com/igorauad/symbol_timing_sync",
        55,
        1474754977
    ],
    [
        "https://github.com/DylanMuir/fmin_adam",
        55,
        1487166266
    ],
    [
        "https://github.com/dtu-dsp/Robochameleon",
        56,
        1444926248
    ],
    [
        "https://github.com/teradepth/iva",
        56,
        1518361072
    ],
    [
        "https://github.com/acceleration-magnification/sources",
        56,
        1500636421
    ],
    [
        "https://github.com/emrekavur/CHAOS-evaluation",
        56,
        1562849265
    ],
    [
        "https://github.com/zhjwustc/icip17_stereo_hand_pose_dataset",
        56,
        1552225272
    ],
    [
        "https://github.com/aschmidtuulm/ameshref",
        56,
        1534498863
    ],
    [
        "https://github.com/BjoernHaefner/DepthSRfromShading",
        56,
        1521471287
    ],
    [
        "https://github.com/zhangzg78/eegbook",
        56,
        1598884243
    ],
    [
        "https://github.com/LJY-RS/RIFT2-multimodal-matching-rotation",
        56,
        1661490755
    ],
    [
        "https://github.com/MachineLearningBCAM/Load-forecasting-IEEE-TPWRS-2020",
        56,
        1606125949
    ],
    [
        "https://github.com/icsl-Jeon/traj_gen-matlab",
        56,
        1583844047
    ],
    [